test/data/pf_comparison/pf_3wdg_dyn.dss
! 3-winding Dyn transformer (delta primary, grounded-wye secondaries) vs OpenDSS.
! wdg1 HV delta 115 kV (fed by the stiff ideal source, which provides the ground
! reference), wdg2 MV 24.9 kV / wdg3 LV 4.16 kV grounded-wye. The delta primary
! blocks zero-sequence, and the grounded-wye MV/LV neutrals make every node
! voltage well-defined. Same conventions as pf_3wdg_nwinding.dss.
Clear
Set DefaultBaseFreq=60

New Circuit.pf_3wdg_dyn basekv=115 pu=1.0 angle=0 phases=3 bus1=hv model=ideal

New Transformer.t1 windings=3 phases=3
~ wdg=1 bus=hv.1.2.3   conn=delta kv=115  kva=30000 %r=0.3
~ wdg=2 bus=mv.1.2.3.4 conn=wye   kv=24.9 kva=30000 %r=0.4
~ wdg=3 bus=lv.1.2.3.4 conn=wye   kv=4.16 kva=30000 %r=0.4
~ XHL=8 XHT=8 XLT=6 %noloadloss=0 %imag=0

New Reactor.grnd_mv bus1=mv.4 bus2=mv.0 R=0.0001 X=0 phases=1
New Reactor.grnd_lv bus1=lv.4 bus2=lv.0 R=0.0001 X=0 phases=1

New Load.ldmv bus1=mv.1.2.3.4 conn=wye kv=24.9 kw=3000 kvar=600 phases=3 model=1 Vminpu=0 Vmaxpu=2
New Load.ldlv bus1=lv.1.2.3.4 conn=wye kv=4.16 kw=1500 kvar=300 phases=3 model=1 Vminpu=0 Vmaxpu=2

Set VoltageBases=[115, 24.9, 4.16]
CalcVoltageBases
Set Tolerance=1e-9
Solve
